LAMMPS (21 Nov 2023)
units		    si
boundary	    f f f

atom_style	    sphere
neighbor        0.1 bin
neigh_modify	delay 0 every 1 check yes
comm_modify     vel yes

read_data       ../data_ins/seq_eval_data_id199_seed0_period0.0666_period0.05
Reading data file ...
  triclinic box = (-0.1 -0.1 -0.05) to (0.8 0.8 0.15) with tilt (0 0 0)
  reading atoms ...
  49 atoms
#read_data       data_file

region		    outerbox block -0.05 0.635 -0.05 0.5176545 -0.05 0.05

pair_style      granular
pair_coeff      * * hooke 6000 10 tangential linear_history 1715 0.5 0.3 damping mass_velocity
fix		        box all wall/gran/region hooke/history 30000.0 NULL 10.0 NULL 0.5 1 region outerbox

timestep	    0.001
thermo		    500

fix		        1 all nve/sphere
fix             2 all gravity -9.8 vector 0 0 1

#energy minimization

run             2000
Generated 0 of 1 mixed pair_coeff terms from geometric mixing rule
Step          Temp          E_pair         E_mol          TotEng         Press
0   0              0              0              0              1333.3333
Loop time of 0.072436 on 1 procs for 2000 steps with 49 atoms

##################################
######### vibration sims #########
##################################

variable A equal 0.005
variable p1 equal 0.0666
variable p2 equal 0.05

variable omega equal 2.0*3.1415/0.0666
variable omega2 equal 2.0*3.1415/0.05

group		input1 id 13
1 atoms in group input1
group		input2 id 41
1 atoms in group input2
group		output id 23
1 atoms in group output
group       ins_out id 13 41 23
3 atoms in group ins_out

variable x equal swiggle(0.0,0.005,0.0666)
variable v equal v_omega*(0.005-cwiggle(0.0,0.005,0.0666))
fix 6 input1 move variable v_x NULL NULL v_v NULL NULL
fix 7 input2 move variable v_x NULL NULL v_v NULL NULL

#fix             3 input move wiggle 0.0 0.01 0.00 0.05

dump 1 output custom 5 ../dumps/period0.0666_period0.05/dump.seq_eval_seed0_id199_1100 id x y

run		        2000
Generated 0 of 1 mixed pair_coeff terms from geometric mixing rule
Step          Temp          E_pair         E_mol          TotEng         Press
2000   3.8041548e+12  0              0              3.7815896e-09  1125.8016
Loop time of 0.11548 on 1 procs for 2000 steps with 49 atoms
